ZINC000247714414
 OpenBabel01301923243D

 54 60  0  0  1  0  0  0  0  0999 V2000
    0.0021   -0.0041    0.0020 O   0  0  0  0  0  0  0  0  0  0  0  0
   -0.0144    1.2087    0.0087 C   0  0  0  0  0  0  0  0  0  0  0  0
   -1.1055    2.0005    0.0293 N   0  0  0  0  0  0  0  0  0  0  0  0
   -0.7713    3.3570    0.0242 C   0  0  0  0  0  0  0  0  0  0  0  0
   -1.5766    4.4927    0.0364 C   0  0  0  0  0  0  0  0  0  0  0  0
   -1.0062    5.7489    0.0251 C   0  0  0  0  0  0  0  0  0  0  0  0
    0.3688    5.8910    0.0017 C   0  0  0  0  0  0  0  0  0  0  0  0
    1.1772    4.7678   -0.0092 C   0  0  0  0  0  0  0  0  0  0  0  0
    0.6131    3.5121    0.0023 C   0  0  0  0  0  0  0  0  0  0  0  0
    1.1758    2.1229    0.0022 C   0  0  1  0  0  0  0  0  0  0  0  0
    2.2020    1.8454    1.0221 C   0  0  1  0  0  0  0  0  0  0  0  0
    3.0103    2.4788    0.6566 H   0  0  0  0  0  0  0  0  0  0  0  0
    2.5084    1.8383    2.4264 C   0  0  0  0  0  0  0  0  0  0  0  0
    1.8349    2.2546    3.3443 O   0  0  0  0  0  0  0  0  0  0  0  0
    3.7517    1.2453    2.4796 N   0  0  0  0  0  0  0  0  0  0  0  0
    4.5682    1.2498    3.6187 C   0  0  0  0  0  0  0  0  0  0  0  0
    4.1234    1.8787    4.7868 C   0  0  0  0  0  0  0  0  0  0  0  0
    4.8941    1.8986    5.9066 C   0  0  0  0  0  0  0  0  0  0  0  0
    6.1565    1.2807    5.8992 C   0  0  0  0  0  0  0  0  0  0  0  0
    6.9747    1.2849    7.0419 C   0  0  0  0  0  0  0  0  0  0  0  0
    8.1918    0.6771    7.0017 C   0  0  0  0  0  0  0  0  0  0  0  0
    8.6424    0.0485    5.8422 C   0  0  0  0  0  0  0  0  0  0  0  0
    7.8781    0.0240    4.7166 C   0  0  0  0  0  0  0  0  0  0  0  0
    6.6147    0.6409    4.7200 C   0  0  0  0  0  0  0  0  0  0  0  0
    5.7972    0.6304    3.5784 C   0  0  0  0  0  0  0  0  0  0  0  0
    4.1015    0.6490    1.2925 C   0  0  0  0  0  0  0  0  0  0  0  0
    5.2129    0.3760    0.8929 O   0  0  0  0  0  0  0  0  0  0  0  0
    2.7582    0.4009    0.6105 C   0  0  2  0  0  0  0  0  0  0  0  0
    2.2174   -0.4400    1.0446 H   0  0  0  0  0  0  0  0  0  0  0  0
    2.5724    0.4984   -0.8477 C   0  0  2  0  0  0  0  0  0  0  0  0
    1.6846   -0.1054   -1.0358 H   0  0  0  0  0  0  0  0  0  0  0  0
    3.4363    0.2188   -2.0303 C   0  0  0  0  0  0  0  0  0  0  0  0
    2.4269    0.5999   -3.1714 C   0  0  0  0  0  0  0  0  0  0  0  0
    1.3885    1.5406   -2.4844 C   0  0  0  0  0  0  0  0  0  0  0  0
    2.0335    1.8838   -1.1856 N   0  3  1  0  0  0  0  0  0  0  0  0
    2.7416    2.5931   -1.3019 H   0  0  0  0  0  0  0  0  0  0  0  0
   -2.0163    1.6672    0.0454 H   0  0  0  0  0  0  0  0  0  0  0  0
   -2.6516    4.3900    0.0545 H   0  0  0  0  0  0  0  0  0  0  0  0
   -1.6370    6.6256    0.0342 H   0  0  0  0  0  0  0  0  0  0  0  0
    0.8110    6.8763   -0.0084 H   0  0  0  0  0  0  0  0  0  0  0  0
    2.2516    4.8765   -0.0271 H   0  0  0  0  0  0  0  0  0  0  0  0
    3.1543    2.3553    4.7989 H   0  0  0  0  0  0  0  0  0  0  0  0
    4.5371    2.3888    6.8003 H   0  0  0  0  0  0  0  0  0  0  0  0
    6.6395    1.7685    7.9475 H   0  0  0  0  0  0  0  0  0  0  0  0
    8.8180    0.6821    7.8816 H   0  0  0  0  0  0  0  0  0  0  0  0
    9.6127   -0.4258    5.8369 H   0  0  0  0  0  0  0  0  0  0  0  0
    8.2402   -0.4664    3.8252 H   0  0  0  0  0  0  0  0  0  0  0  0
    6.1316    0.1436    2.6742 H   0  0  0  0  0  0  0  0  0  0  0  0
    4.3152    0.8633   -2.0435 H   0  0  0  0  0  0  0  0  0  0  0  0
    3.7159   -0.8336   -2.0801 H   0  0  0  0  0  0  0  0  0  0  0  0
    2.9428    1.1260   -3.9746 H   0  0  0  0  0  0  0  0  0  0  0  0
    1.9341   -0.2929   -3.5563 H   0  0  0  0  0  0  0  0  0  0  0  0
    1.2498    2.4482   -3.0719 H   0  0  0  0  0  0  0  0  0  0  0  0
    0.4380    1.0244   -2.3495 H   0  0  0  0  0  0  0  0  0  0  0  0
  1  2  2  0  0  0  0
  2  3  1  0  0  0  0
  3  4  1  0  0  0  0
  3 37  1  0  0  0  0
  4  9  2  0  0  0  0
  4  5  1  0  0  0  0
  5  6  2  0  0  0  0
  5 38  1  0  0  0  0
  6  7  1  0  0  0  0
  6 39  1  0  0  0  0
  7  8  2  0  0  0  0
  7 40  1  0  0  0  0
  8  9  1  0  0  0  0
  8 41  1  0  0  0  0
  9 10  1  0  0  0  0
 10  2  1  1  0  0  0
 10 35  1  0  0  0  0
 10 11  1  0  0  0  0
 11 12  1  6  0  0  0
 11 28  1  0  0  0  0
 11 13  1  0  0  0  0
 13 14  2  0  0  0  0
 13 15  1  0  0  0  0
 15 16  1  0  0  0  0
 15 26  1  0  0  0  0
 16 25  2  0  0  0  0
 16 17  1  0  0  0  0
 17 18  2  0  0  0  0
 17 42  1  0  0  0  0
 18 19  1  0  0  0  0
 18 43  1  0  0  0  0
 19 24  2  0  0  0  0
 19 20  1  0  0  0  0
 20 21  2  0  0  0  0
 20 44  1  0  0  0  0
 21 22  1  0  0  0  0
 21 45  1  0  0  0  0
 22 23  2  0  0  0  0
 22 46  1  0  0  0  0
 23 24  1  0  0  0  0
 23 47  1  0  0  0  0
 24 25  1  0  0  0  0
 25 48  1  0  0  0  0
 26 27  2  0  0  0  0
 26 28  1  0  0  0  0
 28 29  1  1  0  0  0
 28 30  1  0  0  0  0
 30 31  1  6  0  0  0
 30 35  1  0  0  0  0
 30 32  1  0  0  0  0
 32 33  1  0  0  0  0
 32 49  1  0  0  0  0
 32 50  1  0  0  0  0
 33 34  1  0  0  0  0
 33 51  1  0  0  0  0
 33 52  1  0  0  0  0
 34 35  1  0  0  0  0
 34 53  1  0  0  0  0
 34 54  1  0  0  0  0
 35 36  1  6  0  0  0
M  CHG  1  35   1
M  END
$$$$
